14
Aspirin C1COCCO1 88.05 101.605 -16.565
C -0.731 1.16 0.225
C 0.732 1.16 -0.225
O 1.393 -0.0 0.236
C 0.732 -1.16 -0.223
C -0.733 -1.16 0.223
O -1.393 0.001 -0.235
H -0.774 1.202 1.324
H -1.268 2.011 -0.196
H 0.775 1.201 -1.324
H 1.27 2.01 0.196
H 1.268 -2.01 0.2
H 0.777 -1.205 -1.322
H -1.27 -2.009 -0.201
H -0.778 -1.204 1.322
