12

         C      -1.198024       0.651837      -0.126197 
         C      -1.173564      -0.719504       0.022817 
         C       0.033411      -1.361305       0.148351 
         C       1.213437      -0.639224       0.125556 
         C       1.163664       0.721941      -0.023542 
         C      -0.022163       1.399913      -0.151987 
         H      -2.175943       1.111459      -0.221399 
         H      -2.119148      -1.274429       0.038529 
         H       0.049868      -2.430696       0.264427 
         H       2.151950      -1.167317       0.226308 
         H       2.128637       1.239794      -0.034366 
         H      -0.052127       2.467531      -0.268499 
