14

         O       2.902397      -1.121697      -0.054363 
         N       2.302244      -0.031373      -0.035268 
         O       3.020036       1.119244      -0.035650 
         C       0.875699       0.002072      -0.013285 
         C       0.187308       1.197021       0.008100 
         C      -1.212870       1.186748       0.029279 
         C      -1.919958       0.001807       0.029189 
         C      -1.233530      -1.193609       0.007832 
         C       0.153275      -1.184082      -0.013154 
         H       0.756441       2.107377       0.007775 
         H      -1.714146       2.141832       0.045623 
         H      -3.000899       0.010213       0.045696 
         H      -1.791842      -2.120360       0.007837 
         H       0.675845      -2.115193      -0.029611 
