15

         C       2.215046      -0.014034      -0.122976 
         C       0.722573      -0.001065      -0.044290 
         C      -0.009302      -1.170756      -0.090237 
         C      -1.387991      -1.167079      -0.018147 
         C      -2.100757       0.009804       0.103585 
         C      -1.366041       1.176513       0.149168 
         C       0.011311       1.175585       0.077344 
         H       2.568212       0.015637      -1.154268 
         H       2.650305      -0.915471       0.352979 
         H       2.616190       0.852425       0.468512 
         H       0.512988      -2.101721      -0.184326 
         H      -1.973038      -2.081453      -0.053426 
         H      -3.182536      -0.008949       0.158630 
         H      -1.870194       2.124099       0.243526 
         H       0.593235       2.106465       0.113926 
